# RBCS package parameters:
 &RBCS_PARM01
 useRBCsalt=.TRUE.,
 tauRelaxS=864000.,
 relaxMaskFile(2)='rbcs_mask.bin',
 relaxSFile='S_relax.bin',
#---------------------------------------
#- for eddy-permitting run, use files generated by gendata_5km.m:
# relaxMaskFile='T_relax_mask.5km.bin'
# relaxTFile='temperature.5km.bin',
 &

# RBCS for pTracers (read this namelist only when ptracers pkg is compiled)
 &RBCS_PARM02
 &
