# RBCS package parameters:
 &RBCS_PARM01
 relaxMaskFile(5)='rbcs_PO4_global_mask.bin',
#---------------------------------------
#- for eddy-permitting run, use files generated by gendata_5km.m:
# relaxMaskFile='T_relax_mask.5km.bin'
# relaxTFile='temperature.5km.bin',
 &

# RBCS for pTracers (read this namelist only when ptracers pkg is compiled)
 &RBCS_PARM02
 useRBCpTrNum(3)=.TRUE.
 tauRelaxPTR(3) =3600.,
 relaxPtracerFile(3)='PO4_relax.bin',
 &
